Version 4
SHEET 1 880 680
WIRE -64 32 -176 32
WIRE 112 32 -64 32
WIRE 320 32 176 32
WIRE -64 48 -64 32
WIRE 400 80 368 80
WIRE 176 96 176 32
WIRE 256 96 176 96
WIRE 368 96 368 80
WIRE 368 96 320 96
WIRE -176 112 -176 32
WIRE 400 112 400 80
WIRE -64 144 -64 128
WIRE 80 144 -64 144
WIRE -64 160 -64 144
WIRE 80 208 80 144
WIRE 400 208 400 192
WIRE 400 208 80 208
FLAG -176 192 0
FLAG 416 32 0
FLAG -64 240 0
SYMBOL voltage -176 96 R0
WINDOW 123 0 0 Left 0
WINDOW 39 0 0 Left 0
SYMATTR InstName V1
SYMATTR Value 24
SYMBOL nmos 320 80 R270
SYMATTR InstName M1
SYMATTR Value IRFP2907
SYMBOL res -80 32 R0
WINDOW 3 32 69 Left 2
SYMATTR InstName R1
SYMATTR Value 10000
SYMBOL res -48 256 R180
WINDOW 0 -38 67 Left 2
WINDOW 3 -73 34 Left 2
SYMATTR InstName R2
SYMATTR Value 10000
SYMBOL cap 176 16 R90
WINDOW 0 0 32 VBottom 2
WINDOW 3 32 32 VTop 2
SYMATTR InstName C1
SYMATTR Value 200e-6
SYMATTR SpiceLine Rser=1
SYMBOL cap 256 112 R270
WINDOW 0 32 32 VTop 2
WINDOW 3 0 32 VBottom 2
SYMATTR InstName C2
SYMATTR Value 0.00001e-6
SYMATTR SpiceLine Rser=1000
SYMBOL res 384 96 R0
SYMATTR InstName R4
SYMATTR Value 5833333.3
TEXT -210 264 Left 2 !.tran 10 startup
